* SPICE model PNP bipolar transistor ***BC856B***
* Use the symbol file ***bc856b.asy***
*
* (c) Diotec Semiconductor AG
* www.diotec.com
* 2017-12-04
*
*********************************************************
* This model is for simulation purposes only. It does   *
* not replace reviewing of the data sheet nor real life *
* testing of the part inside the application.           *
*********************************************************
*
.subckt BC856B  E  B  C  params: Vceo=65 Vcbo=80 Vebo=5 Ic=100m hfe=475 Ices=100n Vbe=600m ft=100Meg Ccbo=4.5p Cebo=9p Rc=1 Rb=.1 Re=.1 Eg=1.11 Xti=3

* Above values are an example for the ***BC856B***. Using the
* above symbol file allows for direct insertion of other values
* according to these data sheet parameters:
*
* Vceo    	Collector Emitter voltage, Base open
* Vcbo		Collector Base voltage, Emitter open
* Vebo    	Emitter Base voltage, Collector open
* Ic		DC Collector current
* hfe		Max DC current gain
* Ices		Collector Emitter cut-off current
* Vbe		Min Base Emitter voltage
* ft		Gain bandwidth product
* Ccbo		Typ. Collector Base capacitance
* Cebo		Typ. Emitter Base capacitance
* Rc/Rb/Re	Fixed values
*
* Activation energy: Eg=1.11 for Si (pnp) transistor
* Sat.-current temp. exp: Xti=3 for Si (pnp) transistor

Q  E B C  Transistor

.model Transistor PNP(Is={Ices/2} Bf={hfe} Bvcbo={Vcbo} Bvbe={-Vebo} Vceo={Vceo} Vje={Vbe} Tf={1/(2*pi*ft)} Eg={Eg} Xti={Xti} Icrating={Ic} Cjc={Ccbo*2} Cje={Cebo*2} Rc={Rc} Rb={Rb} Re={Re} mfg=Diotec type=pnp)

.ends
