Version 4
SHEET 1 1956 956
WIRE 1088 -928 976 -928
WIRE 1200 -928 1088 -928
WIRE 976 -896 976 -928
WIRE 1200 -896 1200 -928
WIRE 1088 -848 1040 -848
WIRE 1136 -848 1088 -848
WIRE 976 -736 976 -800
WIRE 1088 -736 1088 -848
WIRE 1088 -736 976 -736
WIRE 976 -720 976 -736
WIRE 976 -608 976 -640
WIRE 384 -576 176 -576
WIRE 640 -576 464 -576
WIRE 816 -560 720 -560
WIRE 912 -560 896 -560
WIRE 976 -496 976 -512
WIRE 80 -464 64 -464
WIRE 96 -464 80 -464
WIRE 432 -464 320 -464
WIRE 544 -464 432 -464
WIRE 320 -432 320 -464
WIRE 544 -432 544 -464
WIRE 976 -400 976 -416
WIRE 432 -384 384 -384
WIRE 480 -384 432 -384
WIRE 64 -336 64 -464
WIRE 1200 -320 1200 -800
WIRE 1328 -320 1200 -320
WIRE 1424 -320 1328 -320
WIRE 1456 -320 1424 -320
WIRE 320 -304 320 -336
WIRE 432 -304 432 -384
WIRE 432 -304 320 -304
WIRE 544 -304 544 -336
WIRE 640 -304 640 -576
WIRE 640 -304 544 -304
WIRE 720 -304 720 -560
WIRE 720 -304 640 -304
WIRE 320 -272 320 -304
WIRE 544 -272 544 -304
WIRE 1328 -240 1328 -256
WIRE 64 -224 64 -256
WIRE 176 -224 176 -576
WIRE 176 -224 64 -224
WIRE 256 -224 176 -224
WIRE 1200 -224 1200 -320
WIRE 1200 -224 608 -224
WIRE 64 -192 64 -224
WIRE 320 -160 320 -176
WIRE 432 -160 320 -160
WIRE 544 -160 544 -176
WIRE 544 -160 432 -160
WIRE 992 -144 976 -144
WIRE 1008 -144 992 -144
WIRE 976 -128 976 -144
WIRE 64 -80 64 -112
WIRE 272 -80 240 -80
WIRE 288 -80 272 -80
WIRE -496 -64 -512 -64
WIRE 240 -48 240 -80
WIRE 976 -32 976 -48
WIRE -512 -16 -512 -64
WIRE 720 16 720 -304
WIRE 816 16 720 16
WIRE 912 16 896 16
WIRE 240 64 240 32
WIRE 336 64 240 64
WIRE -512 80 -512 64
WIRE 976 80 976 64
WIRE 240 96 240 64
WIRE 432 96 432 -160
WIRE 336 144 336 64
WIRE 336 144 304 144
WIRE 368 144 336 144
WIRE 976 176 976 160
WIRE 1088 176 976 176
WIRE 976 208 976 176
WIRE 1200 208 1200 -224
WIRE 240 224 240 192
WIRE 432 224 432 192
WIRE 1088 256 1088 176
WIRE 1088 256 1040 256
WIRE 1136 256 1088 256
WIRE 976 336 976 304
WIRE 1200 336 1200 304
FLAG -512 80 0
FLAG -496 -64 Vcc
FLAG 976 336 0
FLAG 1200 336 0
FLAG 1328 -240 0
FLAG 1456 -240 0
FLAG 992 -144 Vcc
FLAG 1088 -928 Vcc
FLAG 1424 -320 Vout
FLAG 976 -400 0
FLAG 432 -464 Vcc
FLAG 64 -80 0
FLAG 80 -464 Vcc
FLAG 432 224 0
FLAG 240 224 0
FLAG 272 -80 Vcc
SYMBOL voltage -512 -32 R0
WINDOW 0 46 33 Left 2
WINDOW 3 43 73 Left 2
WINDOW 123 0 0 Left 0
WINDOW 39 0 0 Left 0
SYMATTR InstName V1
SYMATTR Value 12
SYMBOL npn 1136 208 R0
SYMATTR InstName Q3
SYMATTR Value BC337-25
SYMBOL npn 1040 208 M0
SYMATTR InstName Q4
SYMATTR Value BC337-25
SYMBOL res 960 64 R0
SYMATTR InstName R5
SYMATTR Value 5k
SYMBOL cap 1344 -256 R180
WINDOW 0 50 55 Left 2
WINDOW 3 47 25 Left 2
SYMATTR InstName C3
SYMATTR Value 50n
SYMBOL res 1440 -336 R0
SYMATTR InstName R6
SYMATTR Value 22k
SYMBOL pnp 912 64 M180
SYMATTR InstName Q5
SYMATTR Value BC327-25
SYMBOL res 912 0 R90
WINDOW 0 0 56 VBottom 2
WINDOW 3 32 56 VTop 2
SYMATTR InstName R7
SYMATTR Value 20k
SYMBOL pnp 1136 -800 M180
SYMATTR InstName Q6
SYMATTR Value BC327-25
SYMBOL pnp 1040 -800 R180
SYMATTR InstName Q7
SYMATTR Value BC327-25
SYMBOL res 960 -736 R0
SYMATTR InstName R8
SYMATTR Value 5k
SYMBOL npn 912 -608 R0
SYMATTR InstName Q8
SYMATTR Value BC337-25
SYMBOL res 912 -576 R90
WINDOW 0 0 56 VBottom 2
WINDOW 3 32 56 VTop 2
SYMATTR InstName R9
SYMATTR Value 20k
SYMBOL res 960 -512 R0
SYMATTR InstName R10
SYMATTR Value 1
SYMBOL res 960 -144 R0
SYMATTR InstName R11
SYMATTR Value 1
SYMBOL npn 256 -272 R0
SYMATTR InstName Q1
SYMATTR Value BC337-25
SYMBOL npn 608 -272 M0
SYMATTR InstName Q2
SYMATTR Value BC337-25
SYMBOL pnp 384 -336 R180
SYMATTR InstName Q9
SYMATTR Value BC327-25
SYMBOL pnp 480 -336 M180
SYMATTR InstName Q10
SYMATTR Value BC327-25
SYMBOL res 48 -352 R0
SYMATTR InstName R2
SYMATTR Value 10k
SYMBOL res 48 -208 R0
SYMATTR InstName R3
SYMATTR Value 10k
SYMBOL res 480 -592 R90
WINDOW 0 0 56 VBottom 2
WINDOW 3 32 56 VTop 2
SYMATTR InstName R4
SYMATTR Value 20k
SYMBOL npn 368 96 R0
SYMATTR InstName Q11
SYMATTR Value BC337-25
SYMBOL npn 304 96 M0
SYMATTR InstName Q12
SYMATTR Value BC337-25
SYMBOL res 224 -64 R0
SYMATTR InstName R1
SYMATTR Value 2k
TEXT -536 224 Left 2 !.tran 5m uic
